* NGSPICE file created from tt_um_tetrahedral_oscillator.ext - technology: sky130A

.subckt sky130_fd_sc_hd__inv_1 VNB VPB VGND VPWR A Y
X0 Y A VGND VNB sky130_fd_pr__nfet_01v8 ad=0.169 pd=1.82 as=0.169 ps=1.82 w=0.65 l=0.15
X1 Y A VPWR VPB sky130_fd_pr__pfet_01v8_hvt ad=0.26 pd=2.52 as=0.26 ps=2.52 w=1 l=0.15
.ends

.subckt sky130_fd_sc_hd__inv_2 VNB VPB VPWR VGND Y A
X0 Y A VPWR VPB sky130_fd_pr__pfet_01v8_hvt ad=0.135 pd=1.27 as=0.26 ps=2.52 w=1 l=0.15
X1 VGND A Y VNB sky130_fd_pr__nfet_01v8 ad=0.169 pd=1.82 as=0.08775 ps=0.92 w=0.65 l=0.15
X2 Y A VGND VNB sky130_fd_pr__nfet_01v8 ad=0.08775 pd=0.92 as=0.169 ps=1.82 w=0.65 l=0.15
X3 VPWR A Y VPB sky130_fd_pr__pfet_01v8_hvt ad=0.26 pd=2.52 as=0.135 ps=1.27 w=1 l=0.15
.ends

.subckt sky130_fd_sc_hd__inv_4 A VGND VNB VPB VPWR Y
X0 Y A VPWR VPB sky130_fd_pr__pfet_01v8_hvt ad=0.135 pd=1.27 as=0.26 ps=2.52 w=1 l=0.15
X1 VGND A Y VNB sky130_fd_pr__nfet_01v8 ad=0.08775 pd=0.92 as=0.08775 ps=0.92 w=0.65 l=0.15
X2 VGND A Y VNB sky130_fd_pr__nfet_01v8 ad=0.169 pd=1.82 as=0.08775 ps=0.92 w=0.65 l=0.15
X3 VPWR A Y VPB sky130_fd_pr__pfet_01v8_hvt ad=0.26 pd=2.52 as=0.135 ps=1.27 w=1 l=0.15
X4 Y A VGND VNB sky130_fd_pr__nfet_01v8 ad=0.08775 pd=0.92 as=0.08775 ps=0.92 w=0.65 l=0.15
X5 Y A VPWR VPB sky130_fd_pr__pfet_01v8_hvt ad=0.135 pd=1.27 as=0.135 ps=1.27 w=1 l=0.15
X6 VPWR A Y VPB sky130_fd_pr__pfet_01v8_hvt ad=0.135 pd=1.27 as=0.135 ps=1.27 w=1 l=0.15
X7 Y A VGND VNB sky130_fd_pr__nfet_01v8 ad=0.08775 pd=0.92 as=0.169 ps=1.82 w=0.65 l=0.15
.ends

.subckt sky130_fd_pr__cap_mim_m3_1_XTS2C5 m3_n3186_n3040# c1_n3146_n3000# VSUBS
X0 c1_n3146_n3000# m3_n3186_n3040# sky130_fd_pr__cap_mim_m3_1 l=30 w=30
C0 c1_n3146_n3000# m3_n3186_n3040# 78.9944f
C1 c1_n3146_n3000# VSUBS 3.12051f
C2 m3_n3186_n3040# VSUBS 18.2382f
.ends

.subckt sky130_fd_sc_hd__buf_16 A VGND VNB VPB VPWR X a_109_47#
X0 VGND A a_109_47# VNB sky130_fd_pr__nfet_01v8 ad=0.08775 pd=0.92 as=0.08775 ps=0.92 w=0.65 l=0.15
X1 X a_109_47# VPWR VPB sky130_fd_pr__pfet_01v8_hvt ad=0.135 pd=1.27 as=0.135 ps=1.27 w=1 l=0.15
X2 VGND a_109_47# X VNB sky130_fd_pr__nfet_01v8 ad=0.08775 pd=0.92 as=0.08775 ps=0.92 w=0.65 l=0.15
X3 VGND a_109_47# X VNB sky130_fd_pr__nfet_01v8 ad=0.08775 pd=0.92 as=0.08775 ps=0.92 w=0.65 l=0.15
X4 X a_109_47# VPWR VPB sky130_fd_pr__pfet_01v8_hvt ad=0.135 pd=1.27 as=0.135 ps=1.27 w=1 l=0.15
X5 VGND a_109_47# X VNB sky130_fd_pr__nfet_01v8 ad=0.08775 pd=0.92 as=0.08775 ps=0.92 w=0.65 l=0.15
X6 VPWR a_109_47# X VPB sky130_fd_pr__pfet_01v8_hvt ad=0.135 pd=1.27 as=0.135 ps=1.27 w=1 l=0.15
X7 a_109_47# A VPWR VPB sky130_fd_pr__pfet_01v8_hvt ad=0.135 pd=1.27 as=0.135 ps=1.27 w=1 l=0.15
X8 X a_109_47# VPWR VPB sky130_fd_pr__pfet_01v8_hvt ad=0.135 pd=1.27 as=0.135 ps=1.27 w=1 l=0.15
X9 VPWR A a_109_47# VPB sky130_fd_pr__pfet_01v8_hvt ad=0.135 pd=1.27 as=0.135 ps=1.27 w=1 l=0.15
X10 X a_109_47# VGND VNB sky130_fd_pr__nfet_01v8 ad=0.08775 pd=0.92 as=0.08775 ps=0.92 w=0.65 l=0.15
X11 X a_109_47# VGND VNB sky130_fd_pr__nfet_01v8 ad=0.08775 pd=0.92 as=0.08775 ps=0.92 w=0.65 l=0.15
X12 X a_109_47# VGND VNB sky130_fd_pr__nfet_01v8 ad=0.08775 pd=0.92 as=0.08775 ps=0.92 w=0.65 l=0.15
X13 X a_109_47# VGND VNB sky130_fd_pr__nfet_01v8 ad=0.08775 pd=0.92 as=0.08775 ps=0.92 w=0.65 l=0.15
X14 a_109_47# A VPWR VPB sky130_fd_pr__pfet_01v8_hvt ad=0.135 pd=1.27 as=0.135 ps=1.27 w=1 l=0.15
X15 VPWR a_109_47# X VPB sky130_fd_pr__pfet_01v8_hvt ad=0.135 pd=1.27 as=0.135 ps=1.27 w=1 l=0.15
X16 X a_109_47# VGND VNB sky130_fd_pr__nfet_01v8 ad=0.08775 pd=0.92 as=0.08775 ps=0.92 w=0.65 l=0.15
X17 X a_109_47# VPWR VPB sky130_fd_pr__pfet_01v8_hvt ad=0.135 pd=1.27 as=0.135 ps=1.27 w=1 l=0.15
X18 VPWR A a_109_47# VPB sky130_fd_pr__pfet_01v8_hvt ad=0.135 pd=1.27 as=0.135 ps=1.27 w=1 l=0.15
X19 VPWR a_109_47# X VPB sky130_fd_pr__pfet_01v8_hvt ad=0.135 pd=1.27 as=0.135 ps=1.27 w=1 l=0.15
X20 VGND A a_109_47# VNB sky130_fd_pr__nfet_01v8 ad=0.08775 pd=0.92 as=0.08775 ps=0.92 w=0.65 l=0.15
X21 VGND A a_109_47# VNB sky130_fd_pr__nfet_01v8 ad=0.08775 pd=0.92 as=0.08775 ps=0.92 w=0.65 l=0.15
X22 VGND a_109_47# X VNB sky130_fd_pr__nfet_01v8 ad=0.08775 pd=0.92 as=0.08775 ps=0.92 w=0.65 l=0.15
X23 X a_109_47# VPWR VPB sky130_fd_pr__pfet_01v8_hvt ad=0.135 pd=1.27 as=0.135 ps=1.27 w=1 l=0.15
X24 VGND a_109_47# X VNB sky130_fd_pr__nfet_01v8 ad=0.08775 pd=0.92 as=0.08775 ps=0.92 w=0.65 l=0.15
X25 VPWR a_109_47# X VPB sky130_fd_pr__pfet_01v8_hvt ad=0.135 pd=1.27 as=0.135 ps=1.27 w=1 l=0.15
X26 VGND a_109_47# X VNB sky130_fd_pr__nfet_01v8 ad=0.08775 pd=0.92 as=0.08775 ps=0.92 w=0.65 l=0.15
X27 VPWR a_109_47# X VPB sky130_fd_pr__pfet_01v8_hvt ad=0.135 pd=1.27 as=0.135 ps=1.27 w=1 l=0.15
X28 X a_109_47# VPWR VPB sky130_fd_pr__pfet_01v8_hvt ad=0.135 pd=1.27 as=0.135 ps=1.27 w=1 l=0.15
X29 VGND a_109_47# X VNB sky130_fd_pr__nfet_01v8 ad=0.169 pd=1.82 as=0.08775 ps=0.92 w=0.65 l=0.15
X30 a_109_47# A VGND VNB sky130_fd_pr__nfet_01v8 ad=0.08775 pd=0.92 as=0.08775 ps=0.92 w=0.65 l=0.15
X31 a_109_47# A VGND VNB sky130_fd_pr__nfet_01v8 ad=0.08775 pd=0.92 as=0.08775 ps=0.92 w=0.65 l=0.15
X32 X a_109_47# VPWR VPB sky130_fd_pr__pfet_01v8_hvt ad=0.135 pd=1.27 as=0.135 ps=1.27 w=1 l=0.15
X33 VPWR a_109_47# X VPB sky130_fd_pr__pfet_01v8_hvt ad=0.135 pd=1.27 as=0.135 ps=1.27 w=1 l=0.15
X34 X a_109_47# VGND VNB sky130_fd_pr__nfet_01v8 ad=0.08775 pd=0.92 as=0.08775 ps=0.92 w=0.65 l=0.15
X35 X a_109_47# VGND VNB sky130_fd_pr__nfet_01v8 ad=0.08775 pd=0.92 as=0.08775 ps=0.92 w=0.65 l=0.15
X36 VPWR A a_109_47# VPB sky130_fd_pr__pfet_01v8_hvt ad=0.135 pd=1.27 as=0.135 ps=1.27 w=1 l=0.15
X37 X a_109_47# VPWR VPB sky130_fd_pr__pfet_01v8_hvt ad=0.135 pd=1.27 as=0.135 ps=1.27 w=1 l=0.15
X38 X a_109_47# VGND VNB sky130_fd_pr__nfet_01v8 ad=0.08775 pd=0.92 as=0.08775 ps=0.92 w=0.65 l=0.15
X39 a_109_47# A VPWR VPB sky130_fd_pr__pfet_01v8_hvt ad=0.135 pd=1.27 as=0.26 ps=2.52 w=1 l=0.15
X40 VPWR a_109_47# X VPB sky130_fd_pr__pfet_01v8_hvt ad=0.135 pd=1.27 as=0.135 ps=1.27 w=1 l=0.15
X41 VPWR a_109_47# X VPB sky130_fd_pr__pfet_01v8_hvt ad=0.26 pd=2.52 as=0.135 ps=1.27 w=1 l=0.15
X42 a_109_47# A VGND VNB sky130_fd_pr__nfet_01v8 ad=0.08775 pd=0.92 as=0.169 ps=1.82 w=0.65 l=0.15
X43 VGND a_109_47# X VNB sky130_fd_pr__nfet_01v8 ad=0.08775 pd=0.92 as=0.08775 ps=0.92 w=0.65 l=0.15
.ends

.subckt oscilador_base VDPWR m3_n3682_n5412# m3_n3682_3100# m3_n3794_n7204# m3_n3794_n11684#
+ m3_n3906_n1716# m3_n3906_n1380# m3_n3906_14188# m3_n3906_n9108# m3_n3794_n19076#
+ m3_n3682_11276# m3_n3682_636# m3_n3794_6012# m3_n3794_13068# m3_n3906_14412# m3_n3794_n12468#
+ m3_n3794_n19300# m3_n3682_n13588# m3_n3906_n2164# m3_n3682_11500# m3_n3906_20908#
+ m3_n3794_n1044# m3_n3906_20572# m3_n3682_n13812# m3_n3682_8924# m3_n3682_1980# m3_n3906_6684#
+ m3_n3906_21356# m3_n3794_n13140# m3_n3682_9372# m3_n3682_9708# m3_n3906_n7988# m3_n3682_n14260#
+ m3_n3794_20236# m3_n3682_n260# m3_n3906_n17732# m3_n3682_2764# m3_n3794_4892# m3_n3906_7468#
+ m3_n3794_18780# m3_n3794_n6868# m3_n3682_n15044# m3_n3682_17772# m3_n3906_n18516#
+ m3_n3682_3548# m3_n3794_5676# m3_n3794_19564# m3_n3794_n18964# m3_n3906_n18180#
+ m3_n3906_n8660# m3_n3906_n11572# m3_n3906_n11908# m3_n3794_5900# m3_n3794_12956#
+ m3_n3906_8140# m3_n3682_18556# m3_n3794_n7540# m3_n3794_n19748# m3_n3682_11948#
+ m3_n3906_n9444# m3_n3906_1532# m3_n3682_n6532# m3_n3906_n12356# m3_n3682_972# m3_n3682_4220#
+ m3_n3794_n8324# m3_n3906_n2836# m3_n3906_2316# m3_n3682_12396# m3_n3682_n7316# m3_n3794_n1716#
+ m3_n3794_14188# m3_n3794_n13588# m3_n3794_n1380# m3_n3682_5004# m3_n3794_7132# m3_n3906_15532#
+ m3_n3794_n9108# m3_n3906_n3284# m3_n3682_12620# m3_n3794_14412# m3_n3794_n13812#
+ m3_n3906_21692# m3_n3682_n14932# m3_n3794_n2164# m3_n3906_16316# m3_n3906_n4068#
+ m3_n3682_n932# m3_n3682_13404# m3_n3794_20908# m3_n3794_1308# m3_n3794_20572# m3_n3682_n1156#
+ m3_n3906_22476# m3_n3794_n14260# m3_n3682_n15716# m3_n3682_n15380# m3_n3794_21356#
+ m3_n3906_22700# m3_n3906_n18852# m3_n3906_10156# m3_n3794_n15044# m3_n3682_3884#
+ m3_n3906_8588# m3_n3794_n7988# m3_n3682_n16164# m3_n3682_20348# m3_n3906_8812# m3_n3682_18892#
+ m3_n3906_n19636# m3_n3682_4668# m3_n3794_6796# m3_n3906_n9780# m3_n3906_n12692#
+ m3_n3682_19676# m3_n3906_9260# m3_n3794_n8660# m3_n3682_21020# m3_n3682_19900# m3_n3906_n13476#
+ m3_n3906_2652# m3_n3794_7804# m3_n3682_n7652# m3_n3682_5340# m3_n3794_n9444# m3_n3906_n3956#
+ m3_n3906_n13700# m3_n3794_n2836# m3_n3906_3436# m3_n3682_n8436# m3_n3682_n11012#
+ m3_n3682_6124# m3_n3794_8252# m3_n3906_16652# m3_n3682_13740# m3_n3682_n1828# m3_n3682_n1492#
+ m3_n3794_1644# m3_n3794_15532# m3_n3794_n14932# m3_n3794_n3284# m3_n3794_9036# m3_n3906_17436#
+ m3_n3906_n5188# m3_n3682_14524# m3_n3794_21692# m3_n3794_2428# m3_n3906_10828# m3_n3794_16316#
+ m3_n3794_n15716# m3_n3682_n2276# m3_n3794_2092# m3_n3906_10492# m3_n3794_n15380#
+ m3_n3682_n16836# m3_n3906_n5412# m3_n3794_n4068# m3_n3682_20684# m3_n3682_15308#
+ m3_n3682_n2500# m3_n3794_22476# m3_n3906_n19972# m3_n3906_11276# m3_n3794_n16164#
+ m3_n3682_n17284# m3_n3906_n596# m3_n3682_21468# m3_n3794_22700# m3_n3794_3100# m3_n3906_9932#
+ m3_n3794_10156# m3_n3906_11500# m3_n3682_5788# m3_n3682_n10676# m3_n3906_n820# m3_n3682_n18068#
+ m3_n3682_n10900# m3_n3794_n9780# m3_n3906_524# m3_n3682_22140# m3_n3906_3772# m3_n3682_n8772#
+ m3_n3906_n14596# m3_n3682_6460# m3_n3794_8924# m3_n3906_n14820# m3_n3794_1980# m3_n3906_4556#
+ m3_n3682_n9556# m3_n3794_n11012# m3_n3794_n3956# m3_n3794_9708# m3_n3682_n12132#
+ m3_n3682_7244# m3_n3794_9372# m3_n3906_17772# m3_n3794_n260# m3_n3682_14860# m3_n3906_n15604#
+ m3_n3682_n2948# m3_n3794_2764# m3_n3794_16652# m3_n3682_8028# m3_n3906_18556# m3_n3682_15644#
+ m3_n3794_3548# m3_n3906_11948# m3_n3906_n16052# m3_n3682_n3396# m3_n3682_1084# m3_n3794_17436#
+ m3_n3906_n6532# m3_n3794_n16836# m3_n3682_n17956# m3_n3794_n5188# m3_n3794_10828#
+ m3_n3682_n3620# m3_n3794_10492# m3_n3682_16092# m3_n3682_16428# m3_n3794_n5412#
+ m3_n3906_6012# m3_n3906_12396# m3_n3906_n7316# m3_n3794_n17284# m3_n3682_22588#
+ m3_n3906_n10228# m3_n3682_n4404# m3_n3794_4220# m3_n3794_11276# m3_n3906_12620#
+ semilogo_0/m4_0_0# m3_n3794_n10676# m3_n3682_n11796# m3_n3682_22812# m3_n3794_n18068#
+ m3_n3906_860# m3_n3682_10268# m3_n3794_11500# m3_n3794_n10900# m3_n3682_n19188#
+ m3_n3682_17100# m3_n3794_5004# m3_n3906_13404# m3_n3906_n1156# m3_n3682_n19412#
+ m3_n3682_n12804# m3_n3794_524# m3_n3906_4892# m3_n3682_7916# m3_n3682_n9892# m3_n3794_n932#
+ m3_n3682_7580# m3_n3906_n15940# m3_n3682_300# m3_n3906_20348# m3_n3794_n12132# m3_n3906_5676#
+ m3_n3682_n13252# m3_n3682_8364# m3_n3906_18892# m3_n3906_5900# m3_n3682_15980# m3_n3906_n16724#
+ m3_n3682_1756# m3_n3794_3884# m3_n3794_17772# m3_n3682_9148# m3_n3906_19676# m3_n3682_n14036#
+ m3_n3682_16764# m3_n3906_21020# m3_n3906_n17172# m3_n3906_n17508# m3_n3794_4668#
+ m3_n3794_18556# m3_n3906_19900# m3_n3794_n17956# m3_n3906_n7652# m3_n3906_n10564#
+ m3_n3794_11948# m3_n3682_17548# m3_n3682_n4740# m3_n3906_7132# m3_n3794_n6532# m3_n3906_n8436#
+ m3_n3906_n11348# m3_n3682_n5524# m3_n3682_3212# m3_n3794_5340# m3_n3794_12396# m3_n3906_13740#
+ m3_n3794_n7316# m3_n3794_n11796# m3_n3906_n1828# m3_n3794_n19188# m3_n3906_n1492#
+ m3_n3906_1308# m3_n3682_11388# m3_n3794_12620# m3_n3682_18220# m3_n3682_n6308# m3_n3682_748#
+ m3_n3794_6124# m3_n3906_14524# m3_n3794_n19412# m3_n3794_860# m3_n3906_n2276# m3_n3682_11612#
+ m3_n3906_n12020# m3_n3794_13404# m3_n3682_19004# m3_n3794_n12804# m3_n3906_15308#
+ m3_n3906_20684# m3_n3682_n13924# m3_n3906_n2500# m3_n3794_n1156# m3_n3682_12060#
+ m3_n3906_6796# m3_n3906_21468# m3_n3794_n13252# m3_n3682_n14708# m3_n3682_n14372#
+ m3_n3682_n708# m3_n3682_9484# m3_n3682_n372# m3_n3794_20348# m3_n3906_n17844# m3_n3682_2876#
+ m3_n3794_18892# m3_n3794_n14036# m3_n3682_n15156# m3_n3682_17884# m3_n3906_n18628#
+ m3_n3794_5788# m3_n3906_7804# m3_n3906_22140# m3_n3906_n18292# m3_n3794_19676# m3_n3906_n8772#
+ m3_n3794_21020# m3_n3906_n11684# m3_n3682_n5860# m3_n3682_18668# m3_n3794_19900#
+ m3_n3794_n7652# m3_n3906_n19076# m3_n3906_8252# m3_n3682_20012# m3_n3906_n9556#
+ m3_n3906_1644# m3_n3682_n6644# m3_n3906_n12468# m3_n3906_n19300# m3_n3682_4332#
+ m3_n3794_6460# m3_n3906_14860# m3_n3794_n8436# m3_n3906_n2948# m3_n3906_9036# m3_n3906_2428#
+ m3_n3794_13740# m3_n3794_n1828# m3_n3906_2092# m3_n3682_19340# m3_n3682_n7092# m3_n3682_n7428#
+ m3_n3682_n10004# m3_n3794_n1492# m3_n3682_5116# m3_n3794_7244# m3_n3906_15644# m3_n3906_n3396#
+ m3_n3682_12732# m3_n3794_14524# m3_n3906_n13140# m3_n3794_n13924# m3_n3906_n3620#
+ m3_n3794_n2276# m3_n3794_8028# m3_n3906_16428# m3_n3906_16092# m3_n3906_3100# m3_n3682_13180#
+ m3_n3682_13516# m3_n3794_20684# m3_n3794_n2500# m3_n3682_n1268# m3_n3794_1084# m3_n3794_15308#
+ m3_n3906_22588# m3_n3682_n8100# m3_n3794_n14372# m3_n3794_n14708# m3_n3682_n15492#
+ m3_n3682_n15828# m3_n3906_n4404# m3_n3794_21468# m3_n3906_22812# m3_n3906_10268#
+ m3_n3906_n18964# m3_n3682_3996# m3_n3906_17100# m3_n3794_n15156# m3_n3682_n16276#
+ m3_n3906_8924# m3_n3906_n19748# m3_n3682_n16500# m3_n3906_n9892# m3_n3906_1980#
+ m3_n3794_22140# m3_n3906_9708# m3_n3682_19788# m3_n3682_n6980# m3_n3906_9372# m3_n3794_n8772#
+ m3_n3906_n260# m3_n3682_21132# m3_n3906_n13588# m3_n3906_2764# m3_n3794_7916# m3_n3682_n7764#
+ m3_n3682_n10340# m3_n3682_5452# m3_n3794_7580# m3_n3906_15980# m3_n3794_n9556# m3_n3906_n13812#
+ m3_n3794_n10004# m3_n3906_3548# m3_n3794_14860# m3_n3682_n8548# m3_n3682_n11124#
+ m3_n3794_n2948# m3_n3682_6236# m3_n3794_8364# m3_n3906_16764# m3_n3906_76# m3_n3682_13852#
+ m3_n3906_n14260# m3_n3794_1756# m3_n3794_15644# m3_n3794_9148# m3_n3906_17548# m3_n3906_n4740#
+ m3_n3794_n3396# m3_n3682_14636# m3_n3906_4220# m3_n3794_16428# m3_n3682_n9220# m3_n3906_n15044#
+ m3_n3794_n15828# m3_n3794_n3620# m3_n3682_n2388# m3_n3794_16092# m3_n3794_n15492#
+ m3_n3682_n16948# m3_n3906_n5524# m3_n3682_20796# m3_n3682_n2612# m3_n3906_5004#
+ m3_n3682_15084# m3_n3794_22588# m3_n3794_n4404# m3_n3906_11388# m3_n3906_18220#
+ m3_n3794_n16276# m3_n3906_n6308# m3_n3682_n17396# m3_n3906_n36# m3_n3794_22812#
+ m3_n3794_3212# m3_n3794_10268# m3_n3906_11612# m3_n3794_17100# m3_n3794_n16500#
+ m3_n3682_n3060# m3_n3682_n10788# m3_n3682_n17620# m3_n3906_n932# m3_n3906_19004#
+ m3_n3682_21804# m3_n3906_12060# m3_n3794_n9892# m3_n3682_n18404# m3_n3906_636# m3_n3682_22252#
+ m3_n3906_3884# m3_n3682_n8884# m3_n3794_n10340# m3_n3682_6572# m3_n3682_6908# m3_n3682_n11460#
+ m3_n3906_n14932# m3_n3906_4668# m3_n3794_15980# m3_n3794_n11124# m3_n3682_n9668#
+ m3_n3682_n12244# m3_n3794_n708# m3_n3682_7356# m3_n3794_9484# m3_n3906_17884# m3_n3794_n372#
+ m3_n3682_14972# m3_n3906_n15716# m3_n3794_2876# m3_n3794_16764# m3_n3906_n15380#
+ m3_n3682_n13028# m3_n3906_n5860# m3_n3906_18668# m3_n3906_5340# m3_n3682_15756#
+ m3_n3906_20012# m3_n3906_n16164# m3_n3794_n4740# m3_n3682_1196# m3_n3794_17548#
+ m3_n3794_n16948# m3_n3906_n6644# m3_n3682_n3732# m3_n3682_1420# m3_n3794_n5524#
+ m3_n3906_6124# m3_n3906_19340# m3_n3906_n7428# m3_n3794_n17396# m3_n3906_n7092#
+ m3_n3682_n4516# m3_n3794_11388# m3_n3794_n10788# m3_n3682_n4180# m3_n3682_2204#
+ m3_n3794_4332# m3_n3906_12732# m3_n3794_18220# m3_n3794_n17620# m3_n3794_n6308#
+ m3_n3794_n36# m3_n3682_22924# m3_n3682_n18740# m3_n3906_972# m3_n3794_11612# m3_n3682_17212#
+ m3_n3794_5116# m3_n3906_13180# m3_n3906_13516# m3_n3794_19004# m3_n3794_n18404#
+ m3_n3906_n1268# m3_n3794_76# m3_n3682_10604# m3_n3906_n8100# m3_n3682_n19524# m3_n3906_n11012#
+ m3_n3794_12060# m3_n3794_n11460# m3_n3682_n12916# m3_n3682_188# m3_n3682_n12580#
+ m3_n3794_636# m3_n3682_7692# m3_n3682_11052# m3_n3682_412# m3_n3794_n12244# m3_n3906_5788#
+ m3_n3682_n13364# m3_n3682_8476# m3_n3906_n16836# m3_n3682_1868# m3_n3794_3996# m3_n3682_8700#
+ m3_n3794_17884# m3_n3794_n13028# m3_n3906_19788# m3_n3906_n6980# m3_n3682_n14148#
+ m3_n3682_n148# m3_n3682_16876# m3_n3906_21132# m3_n3906_6460# m3_n3794_18668# m3_n3906_n17284#
+ m3_n3794_n5860# m3_n3906_n7764# m3_n3794_20012# m3_n3906_n10676# m3_n3682_n4852#
+ m3_n3682_2540# m3_n3906_7244# m3_n3794_n6644# m3_n3906_n18068# m3_n3906_n8548# m3_n3906_n10900#
+ m3_n3682_76# m3_n3682_n5636# m3_n3682_3324# m3_n3794_5452# m3_n3906_8028# m3_n3906_13852#
+ m3_n3794_19340# m3_n3794_n7428# m3_n3794_n18740# m3_n3794_n7092# m3_n3682_n19860#
+ m3_n3682_10940# m3_n3794_12732# m3_n3682_18332# m3_n3906_1084# m3_n3682_4108# m3_n3794_6236#
+ m3_n3906_14636# m3_n3794_n19524# m3_n3682_n6084# m3_n3794_972# m3_n3906_n9220# m3_n3906_n2388#
+ m3_n3682_11724# m3_n3906_n12132# m3_n3794_13516# m3_n3682_19116# m3_n3794_n12916#
+ m3_n3794_13180# m3_n3906_20796# m3_n3794_n8100# m3_n3794_n12580# m3_n3906_n2612#
+ m3_n3794_n1268# m3_n3906_15084# m3_n3682_12508# m3_n3682_12172# m3_n3794_n13364#
+ m3_n3682_n14484# m3_n3906_n3060# m3_n3682_9596# m3_n3682_n484# m3_n3906_21804# m3_n3906_n17956#
+ m3_n3682_2988# m3_n3794_n14148# m3_n3682_9820# m3_n3682_n15268# m3_n3906_7580# m3_n3906_7916#
+ m3_n3682_17996# m3_n3906_22252# m3_n3794_n6980# m3_n3794_19788# m3_n3906_n8884#
+ m3_n3794_21132# m3_n3906_n11796# m3_n3682_n5972# m3_n3682_3660# m3_n3794_n7764#
+ m3_n3906_n19188# m3_n3906_8364# m3_n3682_20124# m3_n3906_n9668# m3_n3906_1756# m3_n3682_n6756#
+ m3_n3906_n19412# m3_n3794_6908# m3_n3682_4444# m3_n3794_6572# m3_n3906_9148# m3_n3906_14972#
+ m3_n3794_n8548# m3_n3794_n19860# m3_n3906_n12804# m3_n3794_13852# m3_n3682_19452#
+ m3_n3682_n10116# m3_n3682_5228# m3_n3794_7356# m3_n3906_15756# m3_n3682_12844# m3_n3906_n13252#
+ m3_n3794_14636# m3_n3906_n3732# m3_n3794_n2388# m3_n3794_n9220# m3_n3682_13292#
+ m3_n3682_13628# m3_n3794_20796# m3_n3906_n14036# m3_n3794_n2612# m3_n3794_1196#
+ m3_n3906_3212# m3_n3794_15084# m3_n3682_n8212# m3_n3794_n14484# m3_n3906_n4516#
+ m3_n3906_n4180# m3_n3682_n1604# m3_n3794_1420# m3_n3682_14076# m3_n3906_22924# m3_n3794_n3060#
+ m3_n3906_17212# m3_n3794_n15268# m3_n3794_21804# m3_n3682_n16388# m3_n3682_14300#
+ m3_n3682_n2052# m3_n3794_2204# m3_n3906_10604# m3_n3682_n16612# m3_n3682_20460#
+ m3_n3794_22252# m3_n3682_4780# m3_n3906_9484# m3_n3906_11052# m3_n3794_n8884# m3_n3906_n708#
+ m3_n3906_n372# m3_n3682_21244# m3_n3682_n17060# m3_n3906_2876# m3_n3682_n7876# m3_n3682_n10452#
+ m3_n3682_5564# m3_n3794_7692# m3_n3794_n9668# m3_n3682_22028# m3_n3906_n13924# m3_n3794_14972#
+ m3_n3794_n10116# m3_n3682_6348# m3_n3794_8476# m3_n3906_16876# m3_n3682_n11236#
+ m3_n3906_300# m3_n3682_13964# m3_n3906_n14372# m3_n3906_n14708# m3_n3794_1868# m3_n3794_8700#
+ m3_n3794_15756# m3_n3906_n4852# m3_n3794_n148# m3_n3682_14748# m3_n3682_n1940# m3_n3906_4332#
+ m3_n3682_n9332# m3_n3906_n15156# m3_n3794_n3732# m3_n3682_7020# m3_n3906_n5636#
+ m3_n3682_n2724# m3_n3794_2540# m3_n3906_5116# m3_n3906_10940# m3_n3682_15196# m3_n3794_n4516#
+ m3_n3794_n16388# m3_n3794_n4180# m3_n3906_18332# m3_n3906_n6084# m3_n3682_15420#
+ m3_n3794_22924# m3_n3682_n3508# m3_n3794_3324# m3_n3906_11724# m3_n3794_17212# m3_n3794_n16612#
+ m3_n3682_n3172# m3_n3682_n17732# m3_n3906_19116# m3_n3682_21916# m3_n3794_10604#
+ m3_n3682_16204# m3_n3682_21580# m3_n3794_4108# m3_n3906_12508# m3_n3906_12172# m3_n3794_n17060#
+ m3_n3682_n18516# m3_n3682_n18180# m3_n3906_748# m3_n3682_22364# m3_n3906_n10004#
+ m3_n3906_3996# m3_n3794_11052# m3_n3794_n10452# m3_n3682_n11908# m3_n3682_n8996#
+ m3_n3682_n11572# m3_n3682_6684# m3_n3682_10044# m3_n3794_n11236# m3_n3682_n12356#
+ m3_n3386_n6343# m3_n3682_7468# m3_n3794_9596# m3_n3906_17996# m3_n3794_n484# m3_n3906_n15828#
+ x16/X m3_n3794_2988# m3_n3906_n15492# m3_n3794_300# m3_n3794_9820# m3_n3794_16876#
+ m3_n3906_n5972# m3_n3682_15868# m3_n3906_20124# m3_n3906_n16276# m3_n3794_n4852#
+ m3_n3906_5452# m3_n3682_8140# m3_n3906_n6756# m3_n3906_n16500# m3_n3682_n3844# m3_n3682_1532#
+ m3_n3794_3660# m3_n3794_n5636# m3_n3906_6236# m3_n3906_19452# m3_n3794_10940# m3_n3682_16540#
+ m3_n3682_n4628# m3_n3682_n4292# m3_n3682_2316# m3_n3794_4444# m3_n3906_12844# m3_n3794_18332#
+ m3_n3794_n17732# m3_n3794_n6084# m3_n3682_n18852# m3_n3794_11724# m3_n3906_n10340#
+ m3_n3682_17324# m3_n3794_5228# m3_n3906_13628# m3_n3794_19116# m3_n3794_n18516#
+ m3_n3682_n5076# m3_n3906_13292# m3_n3906_n8212# m3_n3682_n19636# m3_n3794_n18180#
+ m3_n3682_10380# m3_n3682_10716# m3_n3906_n11124# m3_n3794_12172# m3_n3794_12508#
+ m3_n3682_18108# m3_n3794_n11572# m3_n3794_n11908# m3_n3682_n5300# m3_n3682_n12692#
+ m3_n3906_n1604# m3_n3794_748# m3_n3906_14076# m3_n3682_11164# m3_n3682_524# m3_n3906_14300#
+ m3_n3794_n12356# m3_n3682_8588# m3_n3682_n13476# m3_n3906_n2052# m3_n3906_20460#
+ m3_n3906_n16948# m3_n3682_8812# m3_n3794_17996# m3_n3682_n13700# m3_n3906_6908#
+ m3_n3682_16988# m3_n3906_6572# m3_n3906_21244# m3_n3906_n17396# m3_n3794_n5972#
+ m3_n3682_9260# m3_n3906_n7876# m3_n3794_20124# m3_n3906_n10788# m3_n3906_n17620#
+ m3_n3682_n4964# m3_n3682_2652# m3_n3794_4780# m3_n3906_7356# m3_n3906_22028# m3_n3794_n6756#
+ m3_n3682_17660# m3_n3906_n18404# m3_n3682_n5748# m3_n3682_3436# m3_n3794_5564# m3_n3906_13964#
+ m3_n3794_19452# m3_n3794_n18852# m3_n3682_n19972# m3_n3906_n11460# m3_n3794_12844#
+ m3_n3682_18444# m3_n3906_1196# m3_n3794_6348# m3_n3906_14748# m3_n3682_n6196# m3_n3906_n1940#
+ m3_n3906_n9332# m3_n3794_n19636# m3_n3682_11836# m3_n3906_1420# m3_n3794_13628#
+ m3_n3906_n12244# m3_n3682_n6420# m3_n3682_860# m3_n3794_13292# m3_n3682_19228# m3_n3794_n8212#
+ m3_n3794_n12692# m3_n3906_n2724# m3_n3906_15196# x13/X m3_n3906_2204# m3_n3682_12284#
+ m3_n3682_n7204# m3_n3906_n13028# m3_n3794_n1604# m3_n3794_7020# m3_n3794_14076#
+ m3_n3906_15420# m3_n3794_n13476# m3_n3906_n3508# m3_n3682_n14596# m3_n3906_n3172#
+ m3_n3682_n596# m3_n3682_13068# m3_n3794_14300# m3_n3906_21916# m3_n3794_n13700#
+ m3_n3906_21580# m3_n3682_n14820# m3_n3794_n2052# m3_n3682_9932# m3_n3906_16204#
+ m3_n3682_n820# m3_n3794_20460# m3_n3682_n1044# m3_n3906_22364# m3_n3682_n15604#
+ m3_n3906_7692# m3_n3906_n8996# m3_n3794_21244# m3_n3906_n18740# m3_n3682_3772# m3_n3906_10044#
+ m3_n3906_8476# m3_n3794_n7876# m3_n3682_n16052# m3_n3682_20236# m3_n3906_1868# m3_n3794_22028#
+ m3_n3906_n19524# m3_n3906_8700# m3_n3682_18780# m3_n3682_n6868# m3_n3682_4556# m3_n3794_6684#
+ m3_n3794_n19972# m3_n3906_n148# m3_n3906_n12916# m3_n3794_13964# m3_n3906_n12580#
+ m3_n3682_19564# m3_n3682_n10228# m3_n3794_7468# m3_n3906_15868# m3_n3906_2540# m3_n3682_12956#
+ m3_n3906_n13364# m3_n3794_n1940# m3_n3794_14748# m3_n3682_n7540# m3_n3794_n9332#
+ m3_n3906_n3844# m3_n3906_n14148# m3_n3794_n2724# m3_n3906_3324# m3_n3682_n8324#
+ m3_n3682_6012# m3_n3794_8140# m3_n3794_15196# m3_n3906_16540# m3_n3794_n14596# m3_n3906_n4628#
+ m3_n3906_n4292# m3_n3682_n1716# m3_n3682_n1380# m3_n3794_1532# m3_n3906_4108# m3_n3682_14188#
+ m3_n3794_15420# m3_n3682_n9108# m3_n3794_n14820# m3_n3794_n3508# m3_n3794_n3172#
+ m3_n3906_17324# m3_n3682_n15940# m3_n3794_21916# m3_n3906_n5076# m3_n3682_14412#
+ m3_n3794_21580# m3_n3682_n2164# m3_n3794_2316# m3_n3906_10380# m3_n3906_10716# m3_n3794_16204#
+ m3_n3794_n15604# m3_n3906_18108# m3_n3682_n16724# m3_n3906_n5300# m3_n3682_20572#
+ m3_n3682_20908# m3_n3794_22364# m3_n3906_n19860# m3_n3682_4892# m3_n3906_9596# m3_n3906_11164#
+ m3_n3794_n8996# m3_n3794_n16052# m3_n3682_n17508# m3_n3682_21356# m3_n3682_n17172#
+ m3_n3906_n484# m3_n3794_10044# x15/X m3_n3906_2988# m3_n3906_9820# m3_n3682_n7988#
+ m3_n3682_n10564# m3_n3682_5676# m3_n3906_188# m3_n3682_5900# m3_n3794_n10228# m3_n3794_8588#
+ m3_n3906_16988# m3_n3682_n11348# m3_n3906_412# m3_n3906_3660# m3_n3794_8812# m3_n3794_15868#
+ m3_n3682_n8660# m3_n3906_n14484# m3_n3906_n4964# m3_n3906_4444# m3_n3682_n9444#
+ m3_n3906_n15268# m3_n3794_n3844# m3_n3682_7132# m3_n3794_9260# m3_n3906_17660# m3_n3682_n12020#
+ m3_n3906_n5748# m3_n3682_n2836# m3_n3794_2652# m3_n3906_5228# m3_n3794_16540# m3_n3794_n15940#
+ m3_n3794_n4628# m3_n3794_n4292# m3_n3906_18444# m3_n3906_n6196# m3_n3682_15532#
+ m3_n3682_1308# m3_n3794_3436# m3_n3906_11836# m3_n3794_17324# m3_n3794_n16724# m3_n3682_n3284#
+ m3_n3682_n17844# m3_n3906_n6420# m3_n3794_n5076# m3_n3906_19228# m3_n3794_10716#
+ m3_n3682_21692# m3_n3794_10380# m3_n3682_16316# m3_n3794_n5300# m3_n3682_n4068#
+ m3_n3906_12284# m3_n3794_18108# m3_n3794_n17172# m3_n3794_n17508# m3_n3906_n7204#
+ m3_n3682_n18628# m3_n3682_n18292# m3_n3682_22476# m3_n3906_n10116# m3_n3794_11164#
+ m3_n3794_n10564# m3_n3906_13068# m3_n3682_n11684# m3_n3682_6796# m3_n3682_22700#
+ x9/A m3_n3682_10156# m3_n3682_n19076# m3_n3794_n11348# m3_n3682_n12468# m3_n3906_n1044#
+ m3_n3794_188# m3_n3682_n19300# m3_n3794_n596# m3_n3906_4780# m3_n3794_412# m3_n3682_7804#
+ m3_n3794_9932# m3_n3794_16988# m3_n3682_n9780# m3_n3794_n820# m3_n3906_20236# m3_n3794_n12020#
+ m3_n3906_n16388# m3_n3794_n4964# m3_n3906_5564# m3_n3682_n13140# m3_n3682_8252#
+ m3_n3906_18780# m3_n3906_n6868# m3_n3906_n16612# m3_n3682_n3956# m3_n3682_1644#
+ m3_n3794_3772# m3_n3906_6348# m3_n3794_17660# x14/X m3_n3794_n5748# m3_n3682_9036#
+ m3_n3906_19564# m3_n3682_16652# m3_n3906_n17060# m3_n3682_2428# m3_n3794_4556# m3_n3906_12956#
+ m3_n3794_18444# m3_n3794_n17844# m3_n3682_2092# m3_n3906_n7540# m3_n3682_n18964#
+ m3_n3794_n6196# VSUBS m3_n3906_n10452# m3_n3794_11836# m3_n3682_17436# m3_n3682_n36#
+ m3_n3906_7020# m3_n3794_19228# m3_n3794_n18628# m3_n3794_n6420# m3_n3682_n5188#
+ m3_n3906_n8324# m3_n3682_n19748# m3_n3794_n18292# m3_n3682_10492# m3_n3682_10828#
+ m3_n3906_n11236# m3_n3794_12284#
Xx1 VSUBS VDPWR VSUBS VDPWR x9/Y x4/A sky130_fd_sc_hd__inv_1
Xx2 VSUBS VDPWR VDPWR VSUBS x4/A x9/Y sky130_fd_sc_hd__inv_2
Xx3 VSUBS VDPWR VDPWR VSUBS x9/Y x4/A sky130_fd_sc_hd__inv_2
Xx4 VSUBS VDPWR VSUBS VDPWR x4/A x9/Y sky130_fd_sc_hd__inv_1
Xx5 VSUBS VDPWR VSUBS VDPWR x9/A x8/A sky130_fd_sc_hd__inv_1
Xx6 VSUBS VDPWR VDPWR VSUBS x8/A x9/A sky130_fd_sc_hd__inv_2
Xx7 VSUBS VDPWR VDPWR VSUBS x9/A x8/A sky130_fd_sc_hd__inv_2
Xx8 VSUBS VDPWR VSUBS VDPWR x8/A x9/A sky130_fd_sc_hd__inv_1
Xx9 x9/A VSUBS VSUBS VDPWR VDPWR x9/Y sky130_fd_sc_hd__inv_4
XXC10 m3_n3386_n6343# x9/Y VSUBS sky130_fd_pr__cap_mim_m3_1_XTS2C5
XXC11 m3_n3386_n6343# x9/A VSUBS sky130_fd_pr__cap_mim_m3_1_XTS2C5
XXC12 m3_n3386_n6343# x9/A VSUBS sky130_fd_pr__cap_mim_m3_1_XTS2C5
XXC13 m3_n3386_n6343# x9/A VSUBS sky130_fd_pr__cap_mim_m3_1_XTS2C5
XXC14 m3_n3386_n6343# x8/A VSUBS sky130_fd_pr__cap_mim_m3_1_XTS2C5
XXC15 m3_n3386_n6343# x8/A VSUBS sky130_fd_pr__cap_mim_m3_1_XTS2C5
XXC16 m3_n3386_n6343# x8/A VSUBS sky130_fd_pr__cap_mim_m3_1_XTS2C5
XXC1 m3_n3386_n6343# x4/A VSUBS sky130_fd_pr__cap_mim_m3_1_XTS2C5
XXC2 m3_n3386_n6343# x9/Y VSUBS sky130_fd_pr__cap_mim_m3_1_XTS2C5
Xx10 x9/Y VSUBS VSUBS VDPWR VDPWR x8/A sky130_fd_sc_hd__inv_4
XXC3 m3_n3386_n6343# x9/A VSUBS sky130_fd_pr__cap_mim_m3_1_XTS2C5
Xx11 x8/A VSUBS VSUBS VDPWR VDPWR x4/A sky130_fd_sc_hd__inv_4
XXC4 m3_n3386_n6343# x8/A VSUBS sky130_fd_pr__cap_mim_m3_1_XTS2C5
Xx12 x4/A VSUBS VSUBS VDPWR VDPWR x9/A sky130_fd_sc_hd__inv_4
XXC5 m3_n3386_n6343# x4/A VSUBS sky130_fd_pr__cap_mim_m3_1_XTS2C5
Xx13 x9/Y VSUBS VSUBS VDPWR VDPWR x13/X x13/a_109_47# sky130_fd_sc_hd__buf_16
XXC6 m3_n3386_n6343# x4/A VSUBS sky130_fd_pr__cap_mim_m3_1_XTS2C5
XXC7 m3_n3386_n6343# x4/A VSUBS sky130_fd_pr__cap_mim_m3_1_XTS2C5
Xx14 x9/A VSUBS VSUBS VDPWR VDPWR x14/X x14/a_109_47# sky130_fd_sc_hd__buf_16
Xx15 x4/A VSUBS VSUBS VDPWR VDPWR x15/X x15/a_109_47# sky130_fd_sc_hd__buf_16
XXC8 m3_n3386_n6343# x9/Y VSUBS sky130_fd_pr__cap_mim_m3_1_XTS2C5
Xx16 x8/A VSUBS VSUBS VDPWR VDPWR x16/X x16/a_109_47# sky130_fd_sc_hd__buf_16
XXC9 m3_n3386_n6343# x9/Y VSUBS sky130_fd_pr__cap_mim_m3_1_XTS2C5
C0 m3_n3906_n14036# m3_n3794_n14036# 0.06144f
C1 m3_n3906_14524# m3_n3906_14636# 0.06144f
C2 m3_n3682_n3396# m3_n3386_n6343# 0.0178f
C3 m3_n3682_14636# m3_n3794_14636# 0.06144f
C4 m3_n3682_n13924# m3_n3682_n14036# 0.06144f
C5 m3_n3794_4220# m3_n3794_4108# 0.06144f
C6 m3_n3682_n19636# m3_n3682_n19524# 0.06144f
C7 m3_n3794_3100# m3_n3794_3212# 0.06144f
C8 m3_n3794_n2612# m3_n3794_n2500# 0.06144f
C9 m3_n3794_n260# m3_n3794_n148# 0.06144f
C10 m3_n3906_n6756# m3_n3794_n6756# 0.06144f
C11 m3_n3794_n2724# m3_n3682_n2724# 0.06144f
C12 m3_n3906_n2724# m3_n3906_n2836# 0.06144f
C13 m3_n3682_n148# m3_n3682_n260# 0.06144f
C14 m3_n3794_n15604# m3_n3794_n15716# 0.06144f
C15 m3_n3794_n17844# m3_n3682_n17844# 0.06144f
C16 m3_n3906_1756# m3_n3794_1756# 0.06144f
C17 m3_n3906_16540# m3_n3906_16428# 0.06144f
C18 m3_n3794_n7988# m3_n3682_n7988# 0.06144f
C19 m3_n3386_n6343# m3_n3682_5452# 0.0178f
C20 m3_n3794_n11572# m3_n3906_n11572# 0.06144f
C21 m3_n3794_21468# m3_n3682_21468# 0.06144f
C22 m3_n3682_n11572# m3_n3682_n11460# 0.06144f
C23 m3_n3682_1756# m3_n3386_n6343# 0.0178f
C24 m3_n3906_n19972# m3_n3906_n19860# 0.06144f
C25 m3_n3682_n17172# m3_n3682_n17060# 0.06144f
C26 m3_n3794_18108# m3_n3682_18108# 0.06144f
C27 m3_n3682_n8324# m3_n3794_n8324# 0.06144f
C28 m3_n3906_n8436# m3_n3906_n8324# 0.06144f
C29 m3_n3906_n7204# m3_n3794_n7204# 0.06144f
C30 m3_n3682_3212# m3_n3682_3324# 0.06144f
C31 m3_n3794_3212# m3_n3906_3212# 0.06144f
C32 m3_n3906_n4964# m3_n3906_n5076# 0.06144f
C33 m3_n3794_n4964# m3_n3682_n4964# 0.06144f
C34 m3_n3794_7132# m3_n3794_7244# 0.06144f
C35 m3_n3794_n932# m3_n3794_n820# 0.06144f
C36 m3_n3794_4332# m3_n3794_4444# 0.06144f
C37 m3_n3682_15644# m3_n3682_15532# 0.06144f
C38 m3_n3794_22364# m3_n3682_22364# 0.06144f
C39 m3_n3794_n10228# m3_n3682_n10228# 0.06144f
C40 m3_n3906_16204# m3_n3794_16204# 0.06144f
C41 m3_n3906_18668# m3_n3906_18780# 0.06144f
C42 m3_n3906_16316# m3_n3794_16316# 0.06144f
C43 m3_n3794_n484# m3_n3794_n596# 0.06144f
C44 m3_n3682_972# m3_n3682_860# 0.06144f
C45 m3_n3682_16428# m3_n3682_16316# 0.06144f
C46 m3_n3682_5340# m3_n3682_5452# 0.06144f
C47 m3_n3794_7804# m3_n3906_7804# 0.06144f
C48 m3_n3682_12508# m3_n3682_12396# 0.06144f
C49 m3_n3794_13404# m3_n3682_13404# 0.06144f
C50 m3_n3682_7804# m3_n3682_7916# 0.06144f
C51 m3_n3682_n4628# m3_n3386_n6343# 0.0178f
C52 m3_n3794_n19748# m3_n3794_n19636# 0.06144f
C53 m3_n3794_7580# m3_n3682_7580# 0.06144f
C54 m3_n3682_n5748# m3_n3386_n6343# 0.0178f
C55 m3_n3794_n14708# m3_n3682_n14708# 0.06144f
C56 m3_n3906_15756# m3_n3906_15644# 0.06144f
C57 m3_n3794_15756# m3_n3682_15756# 0.06144f
C58 m3_n3794_n14372# m3_n3794_n14260# 0.06144f
C59 m3_n3794_20012# m3_n3794_19900# 0.06144f
C60 m3_n3794_n13476# m3_n3794_n13364# 0.06144f
C61 m3_n3906_n11572# m3_n3906_n11684# 0.06144f